goiania_leste_dss/TR2/CTMT_5002210.dss
! ==============================================================================
! ALIMENTADOR CTMT_5002210 - GOIANIA LESTE-16
! Subestacao: Trafo TR2 (GOL-S-TRF-TR2) | Barra MT: 4629 -> PAC_INI: 84804525002210
! ==============================================================================

! 1. Disjuntor de Saida MT do Alimentador
new line.DJ_5002210 phases=3 bus1=4629 bus2=84804525002210 switch=y r1=1e-4 x1=1e-4 length=0.001 units=km

! 2. Linhas de Media Tensao (MT)
new line.52886966 phases=3 bus1=80531915002210.1.2.3 bus2=80531925002210.1.2.3 r1=0.195 x1=0.4 length=0.008591 units=km normamps=419.0
new line.52886973 phases=3 bus1=80531835002210.1.2.3 bus2=80531825002210.1.2.3 r1=0.236 x1=0.27 length=0.015873 units=km normamps=456.0
new line.52886974 phases=3 bus1=80531845002210.1.2.3 bus2=80531825002210.1.2.3 r1=0.195 x1=0.4 length=0.008364 units=km normamps=419.0
new line.52886975 phases=3 bus1=80531855002210.1.2.3 bus2=80531835002210.1.2.3 r1=0.195 x1=0.4 length=0.012936 units=km normamps=419.0
new line.52886976 phases=3 bus1=80531865002210.1.2.3 bus2=80531835002210.1.2.3 r1=0.236 x1=0.27 length=0.013907 units=km normamps=456.0
new line.52886977 phases=3 bus1=80530635002210.1.2.3 bus2=80531865002210.1.2.3 r1=0.236 x1=0.27 length=0.027284 units=km normamps=456.0
new line.52886978 phases=3 bus1=80530655002210.1.2.3 bus2=91088325002210.1.2.3 r1=0.195 x1=0.4 length=0.012399 units=km normamps=419.0
new line.52886980 phases=3 bus1=80531875002210B.1.2.3 bus2=91888375002210.1.2.3 r1=0.236 x1=0.27 length=0.007284 units=km normamps=456.0
new line.52886982 phases=3 bus1=80531915002210.1.2.3 bus2=80531865002210.1.2.3 r1=0.732 x1=0.31 length=0.023136 units=km normamps=225.0
new line.52887006 phases=3 bus1=80534545002210.1.2.3 bus2=80534555002210.1.2.3 r1=1.551 x1=0.49 length=0.029478 units=km normamps=114.0
new line.52887007 phases=3 bus1=80529785002210.1.2.3 bus2=80529775002210.1.2.3 r1=1.551 x1=0.49 length=0.02199 units=km normamps=114.0
new line.52887008 phases=3 bus1=80529765002210.1.2.3 bus2=80529785002210.1.2.3 r1=1.551 x1=0.49 length=0.00926 units=km normamps=114.0
new line.52887009 phases=3 bus1=80529755002210.1.2.3 bus2=80529785002210.1.2.3 r1=0.975 x1=0.47 length=0.018406 units=km normamps=152.0
new line.52887014 phases=3 bus1=80530125002210B.1.2.3 bus2=80530145002210.1.2.3 r1=0.975 x1=0.47 length=0.02068 units=km normamps=152.0
new line.52887015 phases=3 bus1=80530145002210.1.2.3 bus2=80530135002210.1.2.3 r1=0.975 x1=0.47 length=0.019869 units=km normamps=152.0
new line.52887016 phases=3 bus1=80529785002210.1.2.3 bus2=80529745002210.1.2.3 r1=0.975 x1=0.47 length=0.007209 units=km normamps=152.0
new line.52887017 phases=3 bus1=80529795002210.1.2.3 bus2=80529755002210.1.2.3 r1=0.975 x1=0.47 length=0.031649 units=km normamps=152.0
new line.52887018 phases=3 bus1=80529795002210.1.2.3 bus2=80529805002210.1.2.3 r1=0.975 x1=0.47 length=0.028713 units=km normamps=152.0
new line.52887019 phases=3 bus1=80529815002210.1.2.3 bus2=80529765002210.1.2.3 r1=1.551 x1=0.49 length=0.03886 units=km normamps=114.0
new line.52887020 phases=3 bus1=80529825002210.1.2.3 bus2=80529815002210.1.2.3 r1=1.551 x1=0.49 length=0.033758 units=km normamps=114.0
new line.52887021 phases=3 bus1=80529835002210.1.2.3 bus2=80529825002210.1.2.3 r1=1.551 x1=0.49 length=0.03069 units=km normamps=114.0
new line.52887022 phases=3 bus1=80529955002210.1.2.3 bus2=80529805002210.1.2.3 r1=0.975 x1=0.47 length=0.027795 units=km normamps=152.0
new line.52887023 phases=3 bus1=80530215002210.1.2.3 bus2=80530135002210.1.2.3 r1=0.975 x1=0.47 length=0.013821 units=km normamps=152.0
new line.52887024 phases=3 bus1=80530205002210.1.2.3 bus2=80530225002210.1.2.3 r1=0.975 x1=0.47 length=0.020501 units=km normamps=152.0
new line.52887026 phases=3 bus1=80530265002210.1.2.3 bus2=80530235002210.1.2.3 r1=1.551 x1=0.49 length=0.02387 units=km normamps=114.0
new line.52887027 phases=3 bus1=80530345002210.1.2.3 bus2=89074085002210.1.2.3 r1=1.551 x1=0.49 length=0.011699 units=km normamps=114.0
new line.52887029 phases=3 bus1=80530435002210.1.2.3 bus2=80530475002210.1.2.3 r1=0.975 x1=0.47 length=0.018211 units=km normamps=152.0
new line.52887030 phases=3 bus1=80530475002210.1.2.3 bus2=80530455002210.1.2.3 r1=0.975 x1=0.47 length=0.009427 units=km normamps=152.0
new line.52887031 phases=3 bus1=80530445002210.1.2.3 bus2=80530475002210.1.2.3 r1=1.551 x1=0.49 length=0.007854 units=km normamps=114.0
new line.52887032 phases=3 bus1=80530475002210.1.2.3 bus2=80530425002210.1.2.3 r1=1.551 x1=0.49 length=0.027628 units=km normamps=114.0
new line.52887033 phases=3 bus1=80530425002210.1.2.3 bus2=80530415002210.1.2.3 r1=1.551 x1=0.49 length=0.039072 units=km normamps=114.0
new line.52887034 phases=3 bus1=80530415002210.1.2.3 bus2=80530405002210.1.2.3 r1=1.551 x1=0.49 length=0.039709 units=km normamps=114.0
new line.52887035 phases=3 bus1=80530405002210.1.2.3 bus2=80530395002210.1.2.3 r1=1.551 x1=0.49 length=0.030204 units=km normamps=114.0
new line.52887036 phases=3 bus1=80530465002210.1.2.3 bus2=80530245002210.1.2.3 r1=0.975 x1=0.47 length=0.022696 units=km normamps=152.0
new line.52887037 phases=3 bus1=80530465002210.1.2.3 bus2=80530455002210.1.2.3 r1=0.975 x1=0.47 length=0.032738 units=km normamps=152.0
new line.52887038 phases=3 bus1=80530485002210.1.2.3 bus2=80530445002210.1.2.3 r1=1.551 x1=0.49 length=0.029868 units=km normamps=114.0
new line.52887039 phases=3 bus1=80530495002210.1.2.3 bus2=80530485002210.1.2.3 r1=1.551 x1=0.49 length=0.007985 units=km normamps=114.0
new line.52887040 phases=3 bus1=80530505002210.1.2.3 bus2=80530485002210.1.2.3 r1=1.551 x1=0.49 length=0.041679 units=km normamps=114.0
new line.52887041 phases=3 bus1=80529775002210.1.2.3 bus2=80530515002210.1.2.3 r1=1.551 x1=0.49 length=0.03493 units=km normamps=114.0
new line.52887042 phases=3 bus1=80530515002210.1.2.3 bus2=80530505002210.1.2.3 r1=1.551 x1=0.49 length=0.02769 units=km normamps=114.0
new line.52887044 phases=3 bus1=80530205002210.1.2.3 bus2=80530135002210.1.2.3 r1=0.975 x1=0.47 length=0.015303 units=km normamps=152.0
new line.52887045 phases=3 bus1=80532315002210.1.2.3 bus2=80532305002210.1.2.3 r1=0.975 x1=0.47 length=0.027377 units=km normamps=152.0
new line.52887046 phases=3 bus1=80532325002210.1.2.3 bus2=80532315002210.1.2.3 r1=0.975 x1=0.47 length=0.02991 units=km normamps=152.0
new line.52887047 phases=3 bus1=80532335002210.1.2.3 bus2=80532325002210.1.2.3 r1=0.975 x1=0.47 length=0.03254 units=km normamps=152.0
new line.52887061 phases=3 bus1=80534095002210B.1.2.3 bus2=92916355002210.1.2.3 r1=0.195 x1=0.4 length=0.010752 units=km normamps=419.0
new line.52887062 phases=3 bus1=80534295002210.1.2.3 bus2=80534305002210.1.2.3 r1=0.195 x1=0.4 length=0.025284 units=km normamps=419.0
new line.52887063 phases=3 bus1=80534305002210.1.2.3 bus2=80534285002210.1.2.3 r1=1.551 x1=0.49 length=0.028406 units=km normamps=114.0
new line.52887064 phases=3 bus1=80534305002210.1.2.3 bus2=80534315002210.1.2.3 r1=0.195 x1=0.4 length=0.026191 units=km normamps=419.0
new line.52887065 phases=3 bus1=80534325002210.1.2.3 bus2=80534315002210.1.2.3 r1=0.195 x1=0.4 length=0.009625 units=km normamps=419.0
new line.52887066 phases=3 bus1=80534405002210.1.2.3 bus2=80533015002210.1.2.3 r1=0.195 x1=0.4 length=0.026537 units=km normamps=419.0
new line.52887067 phases=3 bus1=80534415002210.1.2.3 bus2=80534405002210.1.2.3 r1=0.195 x1=0.4 length=0.00636 units=km normamps=419.0
new line.52887068 phases=3 bus1=80534425002210.1.2.3 bus2=80534405002210.1.2.3 r1=0.195 x1=0.4 length=0.031501 units=km normamps=419.0
new line.52887069 phases=3 bus1=80534435002210.1.2.3 bus2=80534425002210.1.2.3 r1=0.195 x1=0.4 length=0.007608 units=km normamps=419.0
new line.52887070 phases=3 bus1=80534445002210.1.2.3 bus2=80534425002210.1.2.3 r1=0.195 x1=0.4 length=0.01812 units=km normamps=419.0
new line.52887071 phases=3 bus1=80534455002210.1.2.3 bus2=80534445002210.1.2.3 r1=0.195 x1=0.4 length=0.043884 units=km normamps=419.0
new line.52887072 phases=3 bus1=80534475002210.1.2.3 bus2=80534455002210.1.2.3 r1=0.195 x1=0.4 length=0.029803 units=km normamps=419.0
new line.52887073 phases=3 bus1=80534485002210.1.2.3 bus2=80534475002210.1.2.3 r1=0.195 x1=0.4 length=0.031971 units=km normamps=419.0
new line.52887074 phases=3 bus1=80534495002210.1.2.3 bus2=80534485002210.1.2.3 r1=0.195 x1=0.4 length=0.029439 units=km normamps=419.0
new line.52887075 phases=3 bus1=80534505002210.1.2.3 bus2=80534495002210.1.2.3 r1=0.195 x1=0.4 length=0.027028 units=km normamps=419.0
new line.52887076 phases=3 bus1=80534315002210.1.2.3 bus2=80534505002210.1.2.3 r1=0.195 x1=0.4 length=0.030887 units=km normamps=419.0
new line.52887077 phases=3 bus1=80534515002210.1.2.3 bus2=80534295002210B.1.2.3 r1=0.975 x1=0.47 length=0.010325 units=km normamps=152.0
new line.52887078 phases=3 bus1=80534525002210.1.2.3 bus2=80534515002210.1.2.3 r1=0.975 x1=0.47 length=0.022887 units=km normamps=152.0
new line.52887079 phases=3 bus1=80534535002210.1.2.3 bus2=80534525002210.1.2.3 r1=0.975 x1=0.47 length=0.027704 units=km normamps=152.0
new line.52887080 phases=3 bus1=80534545002210.1.2.3 bus2=80534535002210.1.2.3 r1=0.975 x1=0.47 length=0.013567 units=km normamps=152.0
new line.52887081 phases=3 bus1=80534565002210.1.2.3 bus2=80534545002210.1.2.3 r1=0.975 x1=0.47 length=0.034872 units=km normamps=152.0
new line.52887082 phases=3 bus1=80534575002210.1.2.3 bus2=80534565002210.1.2.3 r1=0.975 x1=0.47 length=0.031994 units=km normamps=152.0
new line.52887083 phases=3 bus1=80534585002210.1.2.3 bus2=80534575002210.1.2.3 r1=0.975 x1=0.47 length=0.029917 units=km normamps=152.0
new line.52887084 phases=3 bus1=80534595002210.1.2.3 bus2=80534585002210.1.2.3 r1=0.975 x1=0.47 length=0.032274 units=km normamps=152.0
new line.52887085 phases=3 bus1=80533935002210.1.2.3 bus2=80533945002210.1.2.3 r1=0.975 x1=0.47 length=0.022851 units=km normamps=152.0
new line.52887086 phases=3 bus1=80533955002210.1.2.3 bus2=80533935002210.1.2.3 r1=0.975 x1=0.47 length=0.024216 units=km normamps=152.0
new line.52887087 phases=3 bus1=80534705002210.1.2.3 bus2=80534715002210.1.2.3 r1=0.975 x1=0.47 length=0.030409 units=km normamps=152.0
new line.52887088 phases=3 bus1=80530635002210.1.2.3 bus2=80534795002210.1.2.3 r1=0.236 x1=0.27 length=0.029775 units=km normamps=456.0
new line.52887089 phases=3 bus1=80534795002210.1.2.3 bus2=80534785002210.1.2.3 r1=0.236 x1=0.27 length=0.027071 units=km normamps=456.0
new line.52887090 phases=3 bus1=80534785002210.1.2.3 bus2=83509555002210.1.2.3 r1=0.236 x1=0.27 length=0.032033 units=km normamps=456.0
new line.52887091 phases=3 bus1=80534815002210.1.2.3 bus2=80534805002210.1.2.3 r1=0.195 x1=0.4 length=0.030946 units=km normamps=419.0
new line.52887092 phases=3 bus1=80534825002210.1.2.3 bus2=80534815002210.1.2.3 r1=0.195 x1=0.4 length=0.029084 units=km normamps=419.0
new line.52887093 phases=3 bus1=80534835002210.1.2.3 bus2=80534825002210.1.2.3 r1=0.195 x1=0.4 length=0.031765 units=km normamps=419.0
new line.52887094 phases=3 bus1=80534845002210.1.2.3 bus2=80534835002210.1.2.3 r1=0.195 x1=0.4 length=0.026763 units=km normamps=419.0
new line.52887095 phases=3 bus1=80534855002210.1.2.3 bus2=80534845002210.1.2.3 r1=0.195 x1=0.4 length=0.01087 units=km normamps=419.0
new line.52887096 phases=3 bus1=80534865002210.1.2.3 bus2=80534855002210.1.2.3 r1=0.195 x1=0.4 length=0.026748 units=km normamps=419.0
new line.52887097 phases=3 bus1=80534875002210.1.2.3 bus2=80534865002210.1.2.3 r1=0.195 x1=0.4 length=0.035185 units=km normamps=419.0
new line.52887098 phases=3 bus1=80534885002210.1.2.3 bus2=80534875002210.1.2.3 r1=0.195 x1=0.4 length=0.039827 units=km normamps=419.0
new line.52887099 phases=3 bus1=80534895002210.1.2.3 bus2=80534885002210.1.2.3 r1=0.195 x1=0.4 length=0.032673 units=km normamps=419.0
new line.52887100 phases=3 bus1=80534935002210.1.2.3 bus2=80534895002210.1.2.3 r1=0.195 x1=0.4 length=0.036501 units=km normamps=419.0
new line.52887101 phases=3 bus1=80535045002210.1.2.3 bus2=80535055002210.1.2.3 r1=0.195 x1=0.4 length=0.02245 units=km normamps=419.0
new line.52887102 phases=3 bus1=80535055002210.1.2.3 bus2=80535065002210.1.2.3 r1=0.195 x1=0.4 length=0.035259 units=km normamps=419.0
new line.52887103 phases=3 bus1=80535065002210.1.2.3 bus2=80535075002210.1.2.3 r1=0.195 x1=0.4 length=0.03376 units=km normamps=419.0
new line.52887104 phases=3 bus1=80535075002210.1.2.3 bus2=80535125002210.1.2.3 r1=0.195 x1=0.4 length=0.030677 units=km normamps=419.0
new line.52887105 phases=3 bus1=80535125002210.1.2.3 bus2=80534935002210.1.2.3 r1=0.195 x1=0.4 length=0.046185 units=km normamps=419.0
new line.52887106 phases=3 bus1=80530645002210.1.2.3 bus2=80534855002210.1.2.3 r1=0.975 x1=0.47 length=0.031283 units=km normamps=152.0
new line.52887107 phases=3 bus1=80534855002210.1.2.3 bus2=80535135002210.1.2.3 r1=0.975 x1=0.47 length=0.018792 units=km normamps=152.0
new line.52887108 phases=3 bus1=80535135002210B.1.2.3 bus2=80535145002210.1.2.3 r1=0.975 x1=0.47 length=0.018672 units=km normamps=152.0
new line.52887109 phases=3 bus1=80534775002210.1.2.3 bus2=80534805002210.1.2.3 r1=0.236 x1=0.27 length=0.013788 units=km normamps=456.0
new line.52887110 phases=3 bus1=80535155002210B.1.2.3 bus2=80534775002210.1.2.3 r1=0.236 x1=0.27 length=0.028587 units=km normamps=456.0
new line.52887111 phases=3 bus1=80532715002210.1.2.3 bus2=80532685002210.1.2.3 r1=0.975 x1=0.47 length=0.025923 units=km normamps=152.0
new line.52887112 phases=3 bus1=80532685002210.1.2.3 bus2=80532725002210.1.2.3 r1=0.975 x1=0.47 length=0.026803 units=km normamps=152.0
new line.52887113 phases=3 bus1=80532725002210.1.2.3 bus2=80532735002210B.1.2.3 r1=0.975 x1=0.47 length=0.048259 units=km normamps=152.0
new line.52887114 phases=3 bus1=80532755002210.1.2.3 bus2=80532745002210.1.2.3 r1=0.975 x1=0.47 length=0.015201 units=km normamps=152.0
new line.52887115 phases=3 bus1=80532765002210.1.2.3 bus2=80532755002210.1.2.3 r1=0.975 x1=0.47 length=0.035906 units=km normamps=152.0
new line.52887116 phases=3 bus1=80532775002210.1.2.3 bus2=80532765002210.1.2.3 r1=0.975 x1=0.47 length=0.014242 units=km normamps=152.0
new line.52887117 phases=3 bus1=80532785002210.1.2.3 bus2=80532775002210.1.2.3 r1=0.975 x1=0.47 length=0.005729 units=km normamps=152.0
new line.52887118 phases=3 bus1=80532795002210.1.2.3 bus2=80532775002210.1.2.3 r1=0.975 x1=0.47 length=0.023502 units=km normamps=152.0
new line.52887119 phases=3 bus1=80532805002210.1.2.3 bus2=87915505002210.1.2.3 r1=0.975 x1=0.47 length=0.020714 units=km normamps=152.0
new line.52887120 phases=3 bus1=80532815002210.1.2.3 bus2=80532805002210.1.2.3 r1=0.975 x1=0.47 length=0.033727 units=km normamps=152.0
new line.52887122 phases=3 bus1=80532955002210.1.2.3 bus2=80530335002210.1.2.3 r1=1.551 x1=0.49 length=0.013858 units=km normamps=114.0
new line.52887123 phases=3 bus1=80530345002210.1.2.3 bus2=80532965002210.1.2.3 r1=1.551 x1=0.49 length=0.025318 units=km normamps=114.0
new line.52887124 phases=3 bus1=80532965002210.1.2.3 bus2=80532975002210.1.2.3 r1=1.551 x1=0.49 length=0.028994 units=km normamps=114.0
new line.52887125 phases=3 bus1=80532975002210.1.2.3 bus2=80532985002210.1.2.3 r1=1.551 x1=0.49 length=0.029401 units=km normamps=114.0
new line.52887126 phases=3 bus1=80533015002210.1.2.3 bus2=80533025002210.1.2.3 r1=0.195 x1=0.4 length=0.015642 units=km normamps=419.0
new line.52887127 phases=3 bus1=80533035002210.1.2.3 bus2=80533025002210.1.2.3 r1=0.195 x1=0.4 length=0.00636 units=km normamps=419.0
new line.52887128 phases=3 bus1=80533025002210.1.2.3 bus2=80533045002210.1.2.3 r1=0.195 x1=0.4 length=0.017858 units=km normamps=419.0
new line.52887129 phases=3 bus1=80533045002210B.1.2.3 bus2=80532985002210.1.2.3 r1=0.975 x1=0.47 length=0.036655 units=km normamps=152.0
new line.52887130 phases=3 bus1=80533065002210.1.2.3 bus2=80533055002210.1.2.3 r1=1.551 x1=0.49 length=0.028263 units=km normamps=114.0
new line.52887131 phases=3 bus1=80533065002210.1.2.3 bus2=80533075002210.1.2.3 r1=1.551 x1=0.49 length=0.029812 units=km normamps=114.0
new line.52887132 phases=3 bus1=80533045002210.1.2.3 bus2=80533075002210.1.2.3 r1=0.195 x1=0.4 length=0.031501 units=km normamps=419.0
new line.52887133 phases=3 bus1=80533075002210.1.2.3 bus2=80533085002210.1.2.3 r1=0.195 x1=0.4 length=0.009701 units=km normamps=419.0
new line.52887134 phases=3 bus1=80533095002210.1.2.3 bus2=80533085002210.1.2.3 r1=0.195 x1=0.4 length=0.010226 units=km normamps=419.0
new line.52887135 phases=3 bus1=80533085002210.1.2.3 bus2=80533105002210.1.2.3 r1=0.195 x1=0.4 length=0.018855 units=km normamps=419.0
new line.52887136 phases=3 bus1=80533115002210.1.2.3 bus2=80533105002210.1.2.3 r1=0.195 x1=0.4 length=0.012508 units=km normamps=419.0
new line.52887137 phases=3 bus1=80533105002210.1.2.3 bus2=80533125002210.1.2.3 r1=0.195 x1=0.4 length=0.01811 units=km normamps=419.0
new line.52887138 phases=3 bus1=80533125002210.1.2.3 bus2=80533135002210.1.2.3 r1=0.195 x1=0.4 length=0.032738 units=km normamps=419.0
new line.52887139 phases=3 bus1=80533135002210.1.2.3 bus2=80533145002210.1.2.3 r1=0.195 x1=0.4 length=0.045143 units=km normamps=419.0
new line.52887140 phases=3 bus1=80533145002210.1.2.3 bus2=80533155002210.1.2.3 r1=0.195 x1=0.4 length=0.04122 units=km normamps=419.0
new line.52887141 phases=3 bus1=80533165002210.1.2.3 bus2=80533155002210B.1.2.3 r1=0.975 x1=0.47 length=0.034885 units=km normamps=152.0
new line.52887142 phases=3 bus1=80533165002210.1.2.3 bus2=80533175002210.1.2.3 r1=0.975 x1=0.47 length=0.037839 units=km normamps=152.0
new line.52887143 phases=3 bus1=80535405002210.1.2.3 bus2=80535415002210.1.2.3 r1=0.975 x1=0.47 length=0.019501 units=km normamps=152.0
new line.52887144 phases=3 bus1=80533215002210.1.2.3 bus2=80533195002210.1.2.3 r1=0.975 x1=0.47 length=0.017298 units=km normamps=152.0
new line.52887145 phases=3 bus1=80533205002210.1.2.3 bus2=80533215002210.1.2.3 r1=0.975 x1=0.47 length=0.011346 units=km normamps=152.0
new line.52887146 phases=3 bus1=80530355002210.1.2.3 bus2=80533215002210.1.2.3 r1=1.551 x1=0.49 length=0.03943 units=km normamps=114.0
new line.52887147 phases=3 bus1=80533215002210.1.2.3 bus2=80533225002210.1.2.3 r1=1.551 x1=0.49 length=0.010024 units=km normamps=114.0
new line.52887148 phases=3 bus1=80533235002210.1.2.3 bus2=80533205002210.1.2.3 r1=1.551 x1=0.49 length=0.014167 units=km normamps=114.0
new line.52887149 phases=3 bus1=80533245002210.1.2.3 bus2=80533235002210.1.2.3 r1=1.551 x1=0.49 length=0.012335 units=km normamps=114.0
new line.52887150 phases=3 bus1=80533255002210.1.2.3 bus2=80533235002210.1.2.3 r1=1.551 x1=0.49 length=0.006996 units=km normamps=114.0
new line.52887151 phases=3 bus1=80533325002210.1.2.3 bus2=80533135002210.1.2.3 r1=0.195 x1=0.4 length=0.006634 units=km normamps=419.0
new line.52887152 phases=3 bus1=80533125002210.1.2.3 bus2=80533335002210.1.2.3 r1=0.975 x1=0.47 length=0.038153 units=km normamps=152.0
new line.52887153 phases=3 bus1=80533375002210.1.2.3 bus2=80533355002210.1.2.3 r1=0.975 x1=0.47 length=0.027049 units=km normamps=152.0
new line.52887154 phases=3 bus1=80533385002210.1.2.3 bus2=80533355002210.1.2.3 r1=0.975 x1=0.47 length=0.013283 units=km normamps=152.0
new line.52887155 phases=3 bus1=80533395002210.1.2.3 bus2=80533375002210.1.2.3 r1=0.975 x1=0.47 length=0.029341 units=km normamps=152.0
new line.52887156 phases=3 bus1=80533425002210.1.2.3 bus2=80533395002210.1.2.3 r1=0.975 x1=0.47 length=0.02096 units=km normamps=152.0
new line.52887157 phases=3 bus1=80533415002210.1.2.3 bus2=80533425002210.1.2.3 r1=0.975 x1=0.47 length=0.007819 units=km normamps=152.0
new line.52887158 phases=3 bus1=80533405002210.1.2.3 bus2=80533425002210.1.2.3 r1=0.975 x1=0.47 length=0.013779 units=km normamps=152.0
new line.52887159 phases=3 bus1=80533435002210.1.2.3 bus2=80533415002210.1.2.3 r1=0.975 x1=0.47 length=0.029683 units=km normamps=152.0
new line.52887160 phases=3 bus1=80533445002210.1.2.3 bus2=80533435002210.1.2.3 r1=0.975 x1=0.47 length=0.02598 units=km normamps=152.0
new line.52887161 phases=3 bus1=80533465002210.1.2.3 bus2=89399755002210.1.2.3 r1=0.975 x1=0.47 length=0.021416 units=km normamps=152.0
new line.52887162 phases=3 bus1=80533485002210.1.2.3 bus2=96010705002210.1.2.3 r1=0.975 x1=0.47 length=0.006728 units=km normamps=152.0
new line.52887163 phases=3 bus1=80533495002210.1.2.3 bus2=80533485002210.1.2.3 r1=0.975 x1=0.47 length=0.031952 units=km normamps=152.0
new line.52887164 phases=3 bus1=80532735002210.1.2.3 bus2=80533525002210.1.2.3 r1=0.975 x1=0.47 length=0.014386 units=km normamps=152.0
new line.52887165 phases=3 bus1=80533515002210.1.2.3 bus2=80533525002210.1.2.3 r1=0.195 x1=0.4 length=0.017493 units=km normamps=419.0
new line.52887166 phases=3 bus1=80533525002210.1.2.3 bus2=80533495002210.1.2.3 r1=0.975 x1=0.47 length=0.043233 units=km normamps=152.0
new line.52887167 phases=3 bus1=80533525002210.1.2.3 bus2=80533535002210B.1.2.3 r1=0.195 x1=0.4 length=0.010428 units=km normamps=419.0
new line.52887168 phases=3 bus1=80533545002210.1.2.3 bus2=80533535002210.1.2.3 r1=0.195 x1=0.4 length=0.038938 units=km normamps=419.0
new line.52887169 phases=3 bus1=80535415002210.1.2.3 bus2=80535425002210.1.2.3 r1=0.975 x1=0.47 length=0.023607 units=km normamps=152.0
new line.52887170 phases=3 bus1=80535425002210.1.2.3 bus2=80535435002210.1.2.3 r1=0.975 x1=0.47 length=0.050355 units=km normamps=152.0
new line.52887171 phases=3 bus1=80535435002210.1.2.3 bus2=80535445002210.1.2.3 r1=0.975 x1=0.47 length=0.036646 units=km normamps=152.0
new line.52887172 phases=3 bus1=80535465002210.1.2.3 bus2=80535415002210.1.2.3 r1=0.975 x1=0.47 length=0.016388 units=km normamps=152.0
new line.52887173 phases=3 bus1=80535445002210.1.2.3 bus2=80535475002210.1.2.3 r1=0.975 x1=0.47 length=0.026659 units=km normamps=152.0
new line.52887174 phases=3 bus1=80535475002210.1.2.3 bus2=80452435002210.1.2.3 r1=0.975 x1=0.47 length=0.031501 units=km normamps=152.0
new line.52887175 phases=3 bus1=80452435002210.1.2.3 bus2=80452445002210.1.2.3 r1=0.975 x1=0.47 length=0.050313 units=km normamps=152.0
new line.52887179 phases=3 bus1=80533865002210.1.2.3 bus2=80530655002210.1.2.3 r1=0.195 x1=0.4 length=0.036495 units=km normamps=419.0
new line.52887180 phases=3 bus1=80535515002210.1.2.3 bus2=80533865002210.1.2.3 r1=0.195 x1=0.4 length=0.017087 units=km normamps=419.0
new line.52887181 phases=3 bus1=80535515002210.1.2.3 bus2=80535195002210.1.2.3 r1=0.195 x1=0.4 length=0.024072 units=km normamps=419.0
new line.52887182 phases=3 bus1=80535585002210.1.2.3 bus2=88406695002210.1.2.3 r1=0.195 x1=0.4 length=0.020454 units=km normamps=419.0
new line.52887183 phases=3 bus1=80535585002210.1.2.3 bus2=80535595002210.1.2.3 r1=0.195 x1=0.4 length=0.018786 units=km normamps=419.0
new line.52887184 phases=3 bus1=80535605002210.1.2.3 bus2=80535585002210.1.2.3 r1=0.195 x1=0.4 length=0.004001 units=km normamps=419.0
new line.52887185 phases=3 bus1=80535595002210B.1.2.3 bus2=80535615002210.1.2.3 r1=0.975 x1=0.47 length=0.00622 units=km normamps=152.0
new line.52887186 phases=3 bus1=80535625002210.1.2.3 bus2=80535615002210.1.2.3 r1=0.975 x1=0.47 length=0.034873 units=km normamps=152.0
new line.52887187 phases=3 bus1=80535645002210.1.2.3 bus2=80535595002210.1.2.3 r1=0.195 x1=0.4 length=0.017343 units=km normamps=419.0
new line.52887188 phases=3 bus1=80533885002210.1.2.3 bus2=80533875002210.1.2.3 r1=0.195 x1=0.4 length=0.021081 units=km normamps=419.0
new line.52887189 phases=3 bus1=80533875002210.1.2.3 bus2=80535655002210.1.2.3 r1=0.975 x1=0.47 length=0.024245 units=km normamps=152.0
new line.52887190 phases=3 bus1=80535655002210.1.2.3 bus2=80535665002210.1.2.3 r1=0.975 x1=0.47 length=0.02607 units=km normamps=152.0
new line.52887191 phases=3 bus1=80535665002210.1.2.3 bus2=84546375002210.1.2.3 r1=0.975 x1=0.47 length=0.017519 units=km normamps=152.0
new line.52887193 phases=3 bus1=80535695002210.1.2.3 bus2=80535705002210.1.2.3 r1=0.975 x1=0.47 length=0.049127 units=km normamps=152.0
new line.52887194 phases=3 bus1=80535715002210.1.2.3 bus2=80535705002210.1.2.3 r1=0.975 x1=0.47 length=0.007004 units=km normamps=152.0
new line.52887195 phases=3 bus1=80535725002210.1.2.3 bus2=80535695002210.1.2.3 r1=0.195 x1=0.4 length=0.033291 units=km normamps=419.0
new line.52887196 phases=3 bus1=80535695002210.1.2.3 bus2=80533885002210.1.2.3 r1=0.195 x1=0.4 length=0.018057 units=km normamps=419.0
new line.52887197 phases=3 bus1=80535725002210.1.2.3 bus2=80535735002210.1.2.3 r1=0.975 x1=0.47 length=0.015315 units=km normamps=152.0
new line.52887198 phases=3 bus1=80533225002210.1.2.3 bus2=80533645002210.1.2.3 r1=1.551 x1=0.49 length=0.031341 units=km normamps=114.0
new line.52887199 phases=3 bus1=80533645002210.1.2.3 bus2=80533655002210.1.2.3 r1=1.551 x1=0.49 length=0.037712 units=km normamps=114.0
new line.52887200 phases=3 bus1=80533655002210.1.2.3 bus2=80533665002210.1.2.3 r1=1.551 x1=0.49 length=0.032487 units=km normamps=114.0
new line.52887201 phases=3 bus1=80533665002210.1.2.3 bus2=80533675002210.1.2.3 r1=1.551 x1=0.49 length=0.030506 units=km normamps=114.0
new line.52887202 phases=3 bus1=80533675002210.1.2.3 bus2=80533685002210.1.2.3 r1=1.551 x1=0.49 length=0.037501 units=km normamps=114.0
new line.52887203 phases=3 bus1=80533685002210.1.2.3 bus2=80533695002210.1.2.3 r1=1.551 x1=0.49 length=0.037935 units=km normamps=114.0
new line.52887204 phases=3 bus1=80533695002210.1.2.3 bus2=80533705002210.1.2.3 r1=1.551 x1=0.49 length=0.035716 units=km normamps=114.0
new line.52887205 phases=3 bus1=80533705002210.1.2.3 bus2=80533425002210.1.2.3 r1=1.551 x1=0.49 length=0.026838 units=km normamps=114.0
new line.52887206 phases=3 bus1=80533155002210.1.2.3 bus2=80533555002210.1.2.3 r1=0.195 x1=0.4 length=0.028272 units=km normamps=419.0
new line.52887207 phases=3 bus1=80533145002210.1.2.3 bus2=80533725002210.1.2.3 r1=1.551 x1=0.49 length=0.02865 units=km normamps=114.0
new line.52887208 phases=3 bus1=80533735002210.1.2.3 bus2=80533725002210.1.2.3 r1=1.551 x1=0.49 length=0.007209 units=km normamps=114.0
new line.52887246 phases=3 bus1=80533545002210.1.2.3 bus2=80533755002210.1.2.3 r1=0.975 x1=0.47 length=0.04312 units=km normamps=152.0
new line.52887247 phases=3 bus1=80535735002210.1.2.3 bus2=80535745002210.1.2.3 r1=0.975 x1=0.47 length=0.029675 units=km normamps=152.0
new line.52887248 phases=3 bus1=80535755002210.1.2.3 bus2=80535745002210.1.2.3 r1=0.975 x1=0.47 length=0.031159 units=km normamps=152.0
new line.52887249 phases=3 bus1=80535765002210.1.2.3 bus2=80535725002210.1.2.3 r1=0.195 x1=0.4 length=0.04051 units=km normamps=419.0
new line.52887251 phases=3 bus1=80535785002210.1.2.3 bus2=80535775002210.1.2.3 r1=0.195 x1=0.4 length=0.026077 units=km normamps=419.0
new line.52887252 phases=3 bus1=80535205002210.1.2.3 bus2=80535785002210.1.2.3 r1=0.195 x1=0.4 length=0.021795 units=km normamps=419.0
new line.52887253 phases=3 bus1=80535205002210B.1.2.3 bus2=80535405002210.1.2.3 r1=0.975 x1=0.47 length=0.03535 units=km normamps=152.0
new line.52887254 phases=3 bus1=80535215002210.1.2.3 bus2=80535205002210.1.2.3 r1=0.195 x1=0.4 length=0.012297 units=km normamps=419.0
new line.52887255 phases=3 bus1=80535835002210.1.2.3 bus2=80535215002210.1.2.3 r1=0.195 x1=0.4 length=0.015157 units=km normamps=419.0
new line.52887256 phases=3 bus1=80535845002210.1.2.3 bus2=95237065002210.1.2.3 r1=0.195 x1=0.4 length=0.010162 units=km normamps=419.0
new line.52887257 phases=3 bus1=80533895002210.1.2.3 bus2=80535845002210.1.2.3 r1=0.195 x1=0.4 length=0.017392 units=km normamps=419.0
new line.52887258 phases=3 bus1=80533895002210B.1.2.3 bus2=80532745002210.1.2.3 r1=0.975 x1=0.47 length=0.016001 units=km normamps=152.0
new line.52887259 phases=3 bus1=80533905002210.1.2.3 bus2=80533895002210.1.2.3 r1=0.195 x1=0.4 length=0.04035 units=km normamps=419.0
...

! 3. Chaves Seccionadoras MT
new line.SC_5271903 phases=3 bus1=80533535002210.1.2.3 bus2=80533535002210B.1.2.3 switch=y r1=1e-4 x1=1e-4 length=0.001 units=km
new line.SC_5271907 phases=3 bus1=80535155002210.1.2.3 bus2=80535155002210B.1.2.3 switch=y r1=1e-4 x1=1e-4 length=0.001 units=km
new line.SC_5271945 phases=3 bus1=80530125002210.1.2.3 bus2=80530125002210B.1.2.3 switch=y r1=1e-4 x1=1e-4 length=0.001 units=km
new line.SC_5271948 phases=3 bus1=80532735002210.1.2.3 bus2=80532735002210B.1.2.3 switch=y r1=1e-4 x1=1e-4 length=0.001 units=km
new line.SC_5271949 phases=3 bus1=80533045002210.1.2.3 bus2=80533045002210B.1.2.3 switch=y r1=1e-4 x1=1e-4 length=0.001 units=km
new line.SC_5271953 phases=3 bus1=80533155002210.1.2.3 bus2=80533155002210B.1.2.3 switch=y r1=1e-4 x1=1e-4 length=0.001 units=km
new line.SC_5271954 phases=3 bus1=80533895002210.1.2.3 bus2=80533895002210B.1.2.3 switch=y r1=1e-4 x1=1e-4 length=0.001 units=km
new line.SC_5271955 phases=3 bus1=80534295002210.1.2.3 bus2=80534295002210B.1.2.3 switch=y r1=1e-4 x1=1e-4 length=0.001 units=km
new line.SC_5271957 phases=3 bus1=80535595002210.1.2.3 bus2=80535595002210B.1.2.3 switch=y r1=1e-4 x1=1e-4 length=0.001 units=km
new line.SC_5271961 phases=3 bus1=80535205002210.1.2.3 bus2=80535205002210B.1.2.3 switch=y r1=1e-4 x1=1e-4 length=0.001 units=km
open line.SC_5271961 1
new line.SC_5271962 phases=3 bus1=80535135002210.1.2.3 bus2=80535135002210B.1.2.3 switch=y r1=1e-4 x1=1e-4 length=0.001 units=km
new line.SC_5271964 phases=3 bus1=80536265002210.1.2.3 bus2=80536265002210B.1.2.3 switch=y r1=1e-4 x1=1e-4 length=0.001 units=km
new line.SC_5271965 phases=3 bus1=80535855002210.1.2.3 bus2=80535855002210B.1.2.3 switch=y r1=1e-4 x1=1e-4 length=0.001 units=km
new line.SC_5288879 phases=3 bus1=82271515002210.1.2.3 bus2=82271515002210B.1.2.3 switch=y r1=1e-4 x1=1e-4 length=0.001 units=km
new line.SC_5288887 phases=3 bus1=80535045002210.1.2.3 bus2=80535045002210B.1.2.3 switch=y r1=1e-4 x1=1e-4 length=0.001 units=km
new line.SC_5288889 phases=3 bus1=82281675002210.1.2.3 bus2=82281675002210B.1.2.3 switch=y r1=1e-4 x1=1e-4 length=0.001 units=km
new line.SC_5288963 phases=3 bus1=82271485002210.1.2.3 bus2=82271485002210B.1.2.3 switch=y r1=1e-4 x1=1e-4 length=0.001 units=km
new line.SC_5304454 phases=3 bus1=80530655002210.1.2.3 bus2=80530655002210B.1.2.3 switch=y r1=1e-4 x1=1e-4 length=0.001 units=km
new line.SC_5307238 phases=3 bus1=83509555002210.1.2.3 bus2=83509555002210B.1.2.3 switch=y r1=1e-4 x1=1e-4 length=0.001 units=km
new line.SC_5493546 phases=3 bus1=80535765002210.1.2.3 bus2=80535765002210B.1.2.3 switch=y r1=1e-4 x1=1e-4 length=0.001 units=km
new line.SC_5579433 phases=3 bus1=80534455002210.1.2.3 bus2=80534455002210B.1.2.3 switch=y r1=1e-4 x1=1e-4 length=0.001 units=km
new line.SC_5584258 phases=3 bus1=80531875002210.1.2.3 bus2=80531875002210B.1.2.3 switch=y r1=1e-4 x1=1e-4 length=0.001 units=km
new line.SC_5584259 phases=3 bus1=91088325002210.1.2.3 bus2=91088325002210B.1.2.3 switch=y r1=1e-4 x1=1e-4 length=0.001 units=km
new line.SC_5584260 phases=3 bus1=91088415002210.1.2.3 bus2=91088415002210B.1.2.3 switch=y r1=1e-4 x1=1e-4 length=0.001 units=km
open line.SC_5584260 1
new line.SC_5584263 phases=3 bus1=91088395002210.1.2.3 bus2=91088395002210B.1.2.3 switch=y r1=1e-4 x1=1e-4 length=0.001 units=km
new line.SC_5642211 phases=3 bus1=80534095002210.1.2.3 bus2=80534095002210B.1.2.3 switch=y r1=1e-4 x1=1e-4 length=0.001 units=km
open line.SC_5642211 1
new line.SC_5642288 phases=3 bus1=92919495002210.1.2.3 bus2=92919495002210B.1.2.3 switch=y r1=1e-4 x1=1e-4 length=0.001 units=km
open line.SC_5642288 1
new line.SC_5658138 phases=3 bus1=93469705002210.1.2.3 bus2=93469705002210B.1.2.3 switch=y r1=1e-4 x1=1e-4 length=0.001 units=km
new line.SC_5658139 phases=3 bus1=93470165002210.1.2.3 bus2=93470165002210B.1.2.3 switch=y r1=1e-4 x1=1e-4 length=0.001 units=km
open line.SC_5658139 1
new line.SC_5675270 phases=3 bus1=80531905002210.1.2.3 bus2=80531905002210B.1.2.3 switch=y r1=1e-4 x1=1e-4 length=0.001 units=km
new line.SC_5692782 phases=3 bus1=94410345002210.1.2.3 bus2=94410345002210B.1.2.3 switch=y r1=1e-4 x1=1e-4 length=0.001 units=km
new line.SC_5692797 phases=3 bus1=94412775002210.1.2.3 bus2=94412775002210B.1.2.3 switch=y r1=1e-4 x1=1e-4 length=0.001 units=km
open line.SC_5692797 1
new line.SC_5698616 phases=3 bus1=94506115002210.1.2.3 bus2=94506115002210B.1.2.3 switch=y r1=1e-4 x1=1e-4 length=0.001 units=km
new line.SC_5698617 phases=3 bus1=94506355002210.1.2.3 bus2=94506355002210B.1.2.3 switch=y r1=1e-4 x1=1e-4 length=0.001 units=km
open line.SC_5698617 1
new line.SC_5720958 phases=3 bus1=95215095002210.1.2.3 bus2=95215095002210B.1.2.3 switch=y r1=1e-4 x1=1e-4 length=0.001 units=km
open line.SC_5720958 1
new line.SC_5720959 phases=3 bus1=95215125002210.1.2.3 bus2=95215125002210B.1.2.3 switch=y r1=1e-4 x1=1e-4 length=0.001 units=km
open line.SC_5720959 1
new line.SC_5721858 phases=3 bus1=95237045002210.1.2.3 bus2=95237045002210B.1.2.3 switch=y r1=1e-4 x1=1e-4 length=0.001 units=km
new line.SC_5721859 phases=3 bus1=95237075002210.1.2.3 bus2=95237075002210B.1.2.3 switch=y r1=1e-4 x1=1e-4 length=0.001 units=km
open line.SC_5721859 1
new line.SC_5739514 phases=3 bus1=96010725002210.1.2.3 bus2=96010725002210B.1.2.3 switch=y r1=1e-4 x1=1e-4 length=0.001 units=km
open line.SC_5739514 1
new line.SC_5739515 phases=3 bus1=96010695002210.1.2.3 bus2=96010695002210B.1.2.3 switch=y r1=1e-4 x1=1e-4 length=0.001 units=km
new line.SC_5740249 phases=3 bus1=80535225002210.1.2.3 bus2=80535225002210B.1.2.3 switch=y r1=1e-4 x1=1e-4 length=0.001 units=km
new line.SC_5743276 phases=3 bus1=96161465002210.1.2.3 bus2=96161465002210B.1.2.3 switch=y r1=1e-4 x1=1e-4 length=0.001 units=km
open line.SC_5743276 1
new line.SC_5745600 phases=3 bus1=96368265002210.1.2.3 bus2=96368265002210B.1.2.3 switch=y r1=1e-4 x1=1e-4 length=0.001 units=km
open line.SC_5745600 1
new line.SC_5745601 phases=3 bus1=96368255002210.1.2.3 bus2=96368255002210B.1.2.3 switch=y r1=1e-4 x1=1e-4 length=0.001 units=km
new line.SC_5745602 phases=3 bus1=80535835002210.1.2.3 bus2=80535835002210B.1.2.3 switch=y r1=1e-4 x1=1e-4 length=0.001 units=km
new line.SC_5779396 phases=3 bus1=80532965002210.1.2.3 bus2=80532965002210B.1.2.3 switch=y r1=1e-4 x1=1e-4 length=0.001 units=km
new line.SC_SA0002830 phases=3 bus1=SA0002830.1.2.3 bus2=SA0002830B.1.2.3 switch=y r1=1e-4 x1=1e-4 length=0.001 units=km
new line.SC_DA0000431 phases=3 bus1=I888888315245002210.1.2.3 bus2=I888888315245002210B.1.2.3 switch=y r1=1e-4 x1=1e-4 length=0.001 units=km
new line.SC_5814915 phases=3 bus1=99610745002210.1.2.3 bus2=99610745002210B.1.2.3 switch=y r1=1e-4 x1=1e-4 length=0.001 units=km
new line.SC_SA0002831 phases=3 bus1=SA0002831.1.2.3 bus2=SA0002831B.1.2.3 switch=y r1=1e-4 x1=1e-4 length=0.001 units=km

! 5. Transformadores MT/BT de Distribuicao
new transformer.UNTRMT_5271910 phases=3 windings=2 %r=1.46 xhl=3.18 kva=112.0
~ wdg=1 bus=80530215002210.1.2.3 conn=delta kv=13.8
~ wdg=2 bus=80530215271910.1.2.3.0 conn=wye kv=0.38

new transformer.UNTRMT_5271911 phases=3 windings=2 %r=1.55 xhl=3.14 kva=75.0
~ wdg=1 bus=80530495002210.1.2.3 conn=delta kv=13.8
~ wdg=2 bus=80530495271911.1.2.3.0 conn=wye kv=0.38

new transformer.UNTRMT_5271914 phases=3 windings=2 %r=1.39 xhl=3.21 kva=150.0
~ wdg=1 bus=80531845002210.1.2.3 conn=delta kv=13.8
~ wdg=2 bus=80531845271914.1.2.3.0 conn=wye kv=0.38

new transformer.UNTRMT_5271915 phases=3 windings=2 %r=1.3 xhl=4.31 kva=112.0
~ wdg=1 bus=80531855002210.1.2.3 conn=delta kv=13.8
~ wdg=2 bus=80531855271915.1.2.3.0 conn=wye kv=0.38

new transformer.UNTRMT_5271918 phases=3 windings=2 %r=1.68 xhl=3.07 kva=45.0
~ wdg=1 bus=80531925002210.1.2.3 conn=delta kv=13.8
~ wdg=2 bus=80531925271918.1.2.3.0 conn=wye kv=0.38

new transformer.UNTRMT_5271922 phases=3 windings=2 %r=1.3 xhl=4.31 kva=112.0
~ wdg=1 bus=80532955002210.1.2.3 conn=delta kv=13.8
~ wdg=2 bus=80532955271922.1.2.3.0 conn=wye kv=0.38

new transformer.UNTRMT_5271923 phases=3 windings=2 %r=1.3 xhl=4.31 kva=225.0
~ wdg=1 bus=80533735002210.1.2.3 conn=delta kv=13.8
~ wdg=2 bus=80533735271923.1.2.3.0 conn=wye kv=0.38

new transformer.UNTRMT_5271924 phases=3 windings=2 %r=1.15 xhl=5.89 kva=112.0
~ wdg=1 bus=80533325002210.1.2.3 conn=delta kv=13.8
~ wdg=2 bus=80533325271924.1.2.3.0 conn=wye kv=0.38

new transformer.UNTRMT_5271925 phases=3 windings=2 %r=1.46 xhl=3.18 kva=112.0
~ wdg=1 bus=80534555002210.1.2.3 conn=delta kv=13.8
~ wdg=2 bus=80534555271925.1.2.3.0 conn=wye kv=0.38

new transformer.UNTRMT_5271927 phases=3 windings=2 %r=1.55 xhl=3.14 kva=75.0
~ wdg=1 bus=80535605002210.1.2.3 conn=delta kv=13.8
~ wdg=2 bus=80535605271927.1.2.3.0 conn=wye kv=0.38

new transformer.UNTRMT_5271929 phases=3 windings=2 %r=1.02 xhl=5.91 kva=1000.0
~ wdg=1 bus=80535715002210.1.2.3 conn=delta kv=13.8
~ wdg=2 bus=80535715271929.1.2.3.0 conn=wye kv=0.38

new transformer.UNTRMT_5271941 phases=3 windings=2 %r=1.3 xhl=4.31 kva=112.0
~ wdg=1 bus=80540765002210.1.2.3 conn=delta kv=13.8
~ wdg=2 bus=80540765271941.1.2.3.0 conn=wye kv=0.38

new transformer.UNTRMT_5271977 phases=3 windings=2 %r=1.46 xhl=3.18 kva=112.0
~ wdg=1 bus=80529835002210.1.2.3 conn=delta kv=13.8
~ wdg=2 bus=80529835271977.1.2.3.0 conn=wye kv=0.38

new transformer.UNTRMT_5271978 phases=3 windings=2 %r=1.46 xhl=3.18 kva=112.0
~ wdg=1 bus=80529955002210.1.2.3 conn=delta kv=13.8
~ wdg=2 bus=80529955271978.1.2.3.0 conn=wye kv=0.38

new transformer.UNTRMT_5271979 phases=3 windings=2 %r=1.46 xhl=3.18 kva=112.0
~ wdg=1 bus=80530265002210.1.2.3 conn=delta kv=13.8
~ wdg=2 bus=80530265271979.1.2.3.0 conn=wye kv=0.38

new transformer.UNTRMT_5271980 phases=3 windings=2 %r=1.46 xhl=3.18 kva=112.0
~ wdg=1 bus=80530385002210.1.2.3 conn=delta kv=13.8
~ wdg=2 bus=80530385271980.1.2.3.0 conn=wye kv=0.38

new transformer.UNTRMT_5271998 phases=3 windings=2 %r=1.46 xhl=3.18 kva=112.0
~ wdg=1 bus=80534325002210.1.2.3 conn=delta kv=13.8
~ wdg=2 bus=80534325271998.1.2.3.0 conn=wye kv=0.38

new transformer.UNTRMT_5271999 phases=3 windings=2 %r=1.39 xhl=3.21 kva=150.0
~ wdg=1 bus=80534285002210.1.2.3 conn=delta kv=13.8
~ wdg=2 bus=80534285271999.1.2.3.0 conn=wye kv=0.38

new transformer.UNTRMT_5272000 phases=3 windings=2 %r=1.46 xhl=3.18 kva=112.0
~ wdg=1 bus=80532785002210.1.2.3 conn=delta kv=13.8
~ wdg=2 bus=80532785272000.1.2.3.0 conn=wye kv=0.38

new transformer.UNTRMT_5272001 phases=3 windings=2 %r=1.55 xhl=3.14 kva=75.0
~ wdg=1 bus=80532815002210.1.2.3 conn=delta kv=13.8
~ wdg=2 bus=80532815272001.1.2.3.0 conn=wye kv=0.38

new transformer.UNTRMT_5272002 phases=3 windings=2 %r=1.55 xhl=3.14 kva=75.0
~ wdg=1 bus=80533925002210.1.2.3 conn=delta kv=13.8
~ wdg=2 bus=80533925272002.1.2.3.0 conn=wye kv=0.38

new transformer.UNTRMT_5272003 phases=3 windings=2 %r=1.39 xhl=3.21 kva=150.0
~ wdg=1 bus=80536125002210.1.2.3 conn=delta kv=13.8
~ wdg=2 bus=80536125272003.1.2.3.0 conn=wye kv=0.38

new transformer.UNTRMT_5272004 phases=3 windings=2 %r=1.46 xhl=3.18 kva=112.0
~ wdg=1 bus=80536395002210.1.2.3 conn=delta kv=13.8
~ wdg=2 bus=80536395272004.1.2.3.0 conn=wye kv=0.38

new transformer.UNTRMT_5272005 phases=3 windings=2 %r=1.55 xhl=3.14 kva=75.0
~ wdg=1 bus=80536455002210.1.2.3 conn=delta kv=13.8
~ wdg=2 bus=80536455272005.1.2.3.0 conn=wye kv=0.38

new transformer.UNTRMT_5272006 phases=3 windings=2 %r=1.46 xhl=3.18 kva=112.0
~ wdg=1 bus=80532305002210.1.2.3 conn=delta kv=13.8
~ wdg=2 bus=80532305272006.1.2.3.0 conn=wye kv=0.38

new transformer.UNTRMT_5272007 phases=3 windings=2 %r=1.46 xhl=3.18 kva=112.0
~ wdg=1 bus=80532975002210.1.2.3 conn=delta kv=13.8
~ wdg=2 bus=80532975272007.1.2.3.0 conn=wye kv=0.38

new transformer.UNTRMT_5272008 phases=3 windings=2 %r=1.39 xhl=3.21 kva=150.0
~ wdg=1 bus=80533035002210.1.2.3 conn=delta kv=13.8
~ wdg=2 bus=80533035272008.1.2.3.0 conn=wye kv=0.38

new transformer.UNTRMT_5272009 phases=3 windings=2 %r=1.55 xhl=3.14 kva=75.0
~ wdg=1 bus=80533755002210.1.2.3 conn=delta kv=13.8
~ wdg=2 bus=80533755272009.1.2.3.0 conn=wye kv=0.38

new transformer.UNTRMT_5272010 phases=3 windings=2 %r=1.39 xhl=3.21 kva=150.0
~ wdg=1 bus=80533095002210.1.2.3 conn=delta kv=13.8
~ wdg=2 bus=80533095272010.1.2.3.0 conn=wye kv=0.38

new transformer.UNTRMT_5272011 phases=3 windings=2 %r=1.68 xhl=3.07 kva=45.0
~ wdg=1 bus=80533115002210.1.2.3 conn=delta kv=13.8
~ wdg=2 bus=80533115272011.1.2.3.0 conn=wye kv=0.38

new transformer.UNTRMT_5272012 phases=3 windings=2 %r=1.46 xhl=3.18 kva=112.0
~ wdg=1 bus=80533255002210.1.2.3 conn=delta kv=13.8
~ wdg=2 bus=80533255272012.1.2.3.0 conn=wye kv=0.38

new transformer.UNTRMT_5272014 phases=3 windings=2 %r=1.55 xhl=3.14 kva=75.0
~ wdg=1 bus=80533335002210.1.2.3 conn=delta kv=13.8
~ wdg=2 bus=80533335272014.1.2.3.0 conn=wye kv=0.38

new transformer.UNTRMT_5272016 phases=3 windings=2 %r=1.46 xhl=3.18 kva=112.0
~ wdg=1 bus=80533375002210.1.2.3 conn=delta kv=13.8
~ wdg=2 bus=80533375272016.1.2.3.0 conn=wye kv=0.38

new transformer.UNTRMT_5272017 phases=3 windings=2 %r=1.46 xhl=3.18 kva=112.0
~ wdg=1 bus=80533485002210.1.2.3 conn=delta kv=13.8
~ wdg=2 bus=80533485272017.1.2.3.0 conn=wye kv=0.38

new transformer.UNTRMT_5272018 phases=3 windings=2 %r=1.78 xhl=3.01 kva=30.0
~ wdg=1 bus=80536565002210.1.2.3 conn=delta kv=13.8
~ wdg=2 bus=80536565272018.1.2.3.0 conn=wye kv=0.38

new transformer.UNTRMT_5272019 phases=3 windings=2 %r=1.46 xhl=3.18 kva=112.0
~ wdg=1 bus=80536615002210.1.2.3 conn=delta kv=13.8
~ wdg=2 bus=80536615272019.1.2.3.0 conn=wye kv=0.38

new transformer.UNTRMT_5272020 phases=3 windings=2 %r=1.55 xhl=3.14 kva=75.0
~ wdg=1 bus=80534415002210.1.2.3 conn=delta kv=13.8
~ wdg=2 bus=80534415272020.1.2.3.0 conn=wye kv=0.38

new transformer.UNTRMT_5272021 phases=3 windings=2 %r=1.39 xhl=3.21 kva=150.0
~ wdg=1 bus=80534435002210.1.2.3 conn=delta kv=13.8
~ wdg=2 bus=80534435272021.1.2.3.0 conn=wye kv=0.38

new transformer.UNTRMT_5272022 phases=3 windings=2 %r=1.39 xhl=3.21 kva=150.0
~ wdg=1 bus=80534505002210.1.2.3 conn=delta kv=13.8
~ wdg=2 bus=80534505272022.1.2.3.0 conn=wye kv=0.38

new transformer.UNTRMT_5272023 phases=3 windings=2 %r=1.55 xhl=3.14 kva=75.0
~ wdg=1 bus=80534595002210.1.2.3 conn=delta kv=13.8
~ wdg=2 bus=80534595272023.1.2.3.0 conn=wye kv=0.38

new transformer.UNTRMT_5272024 phases=3 windings=2 %r=1.46 xhl=3.18 kva=112.0
~ wdg=1 bus=80534705002210.1.2.3 conn=delta kv=13.8
~ wdg=2 bus=80534705272024.1.2.3.0 conn=wye kv=0.38

new transformer.UNTRMT_5272025 phases=3 windings=2 %r=1.68 xhl=3.07 kva=45.0
~ wdg=1 bus=80533905002210.1.2.3 conn=delta kv=13.8
~ wdg=2 bus=80533905272025.1.2.3.0 conn=wye kv=0.38

new transformer.UNTRMT_5272026 phases=3 windings=2 %r=1.46 xhl=3.18 kva=112.0
~ wdg=1 bus=80535215002210.1.2.3 conn=delta kv=13.8
~ wdg=2 bus=80535215272026.1.2.3.0 conn=wye kv=0.38

new transformer.UNTRMT_5272027 phases=3 windings=2 %r=1.39 xhl=3.21 kva=150.0
~ wdg=1 bus=80535475002210.1.2.3 conn=delta kv=13.8
~ wdg=2 bus=80535475272027.1.2.3.0 conn=wye kv=0.38

new transformer.UNTRMT_5272028 phases=3 windings=2 %r=1.39 xhl=3.21 kva=150.0
~ wdg=1 bus=80533865002210.1.2.3 conn=delta kv=13.8
~ wdg=2 bus=80533865272028.1.2.3.0 conn=wye kv=0.38

new transformer.UNTRMT_5272029 phases=3 windings=2 %r=1.46 xhl=3.18 kva=112.0
~ wdg=1 bus=80535195002210.1.2.3 conn=delta kv=13.8
~ wdg=2 bus=80535195272029.1.2.3.0 conn=wye kv=0.38

new transformer.UNTRMT_5272030 phases=3 windings=2 %r=1.46 xhl=3.18 kva=112.0
~ wdg=1 bus=80536625002210.1.2.3 conn=delta kv=13.8
~ wdg=2 bus=80536625272030.1.2.3.0 conn=wye kv=0.38

new transformer.UNTRMT_5272031 phases=3 windings=2 %r=1.55 xhl=3.14 kva=75.0
~ wdg=1 bus=80535775002210.1.2.3 conn=delta kv=13.8
~ wdg=2 bus=80535775272031.1.2.3.0 conn=wye kv=0.38

new transformer.UNTRMT_5272032 phases=3 windings=2 %r=1.46 xhl=3.18 kva=112.0
~ wdg=1 bus=80534825002210.1.2.3 conn=delta kv=13.8
~ wdg=2 bus=80534825272032.1.2.3.0 conn=wye kv=0.38

new transformer.UNTRMT_5272033 phases=3 windings=2 %r=1.68 xhl=3.07 kva=45.0
~ wdg=1 bus=80534885002210.1.2.3 conn=delta kv=13.8
~ wdg=2 bus=80534885272033.1.2.3.0 conn=wye kv=0.38

new transformer.UNTRMT_5272034 phases=3 windings=2 %r=1.68 xhl=3.07 kva=45.0
~ wdg=1 bus=80535065002210.1.2.3 conn=delta kv=13.8
~ wdg=2 bus=80535065272034.1.2.3.0 conn=wye kv=0.38

new transformer.UNTRMT_5272035 phases=3 windings=2 %r=1.46 xhl=3.18 kva=112.0
~ wdg=1 bus=80535145002210.1.2.3 conn=delta kv=13.8
~ wdg=2 bus=80535145272035.1.2.3.0 conn=wye kv=0.38

new transformer.UNTRMT_5272036 phases=3 windings=2 %r=1.68 xhl=3.07 kva=45.0
~ wdg=1 bus=80536575002210.1.2.3 conn=delta kv=13.8
~ wdg=2 bus=80536575272036.1.2.3.0 conn=wye kv=0.38

new transformer.UNTRMT_5272037 phases=3 windings=2 %r=1.55 xhl=3.14 kva=75.0
~ wdg=1 bus=80535945002210.1.2.3 conn=delta kv=13.8
~ wdg=2 bus=80535945272037.1.2.3.0 conn=wye kv=0.38

new transformer.UNTRMT_5272038 phases=3 windings=2 %r=1.46 xhl=3.18 kva=112.0
~ wdg=1 bus=80532715002210.1.2.3 conn=delta kv=13.8
~ wdg=2 bus=80532715272038.1.2.3.0 conn=wye kv=0.38

new transformer.UNTRMT_5272039 phases=3 windings=2 %r=1.46 xhl=3.18 kva=112.0
~ wdg=1 bus=80536295002210.1.2.3 conn=delta kv=13.8
~ wdg=2 bus=80536295272039.1.2.3.0 conn=wye kv=0.38

new transformer.UNTRMT_5289009 phases=3 windings=2 %r=1.55 xhl=3.14 kva=75.0
~ wdg=1 bus=82271525002210.1.2.3 conn=delta kv=13.8
~ wdg=2 bus=82271525289009.1.2.3.0 conn=wye kv=0.38

new transformer.UNTRMT_5289010 phases=3 windings=2 %r=1.46 xhl=3.18 kva=112.0
~ wdg=1 bus=82271675002210.1.2.3 conn=delta kv=13.8
~ wdg=2 bus=82271675289010.1.2.3.0 conn=wye kv=0.38

new transformer.UNTRMT_5289089 phases=3 windings=2 %r=1.46 xhl=3.18 kva=112.0
~ wdg=1 bus=82275995002210.1.2.3 conn=delta kv=13.8
~ wdg=2 bus=82275995289089.1.2.3.0 conn=wye kv=0.38

new transformer.UNTRMT_5289093 phases=3 windings=2 %r=1.68 xhl=3.07 kva=45.0
~ wdg=1 bus=90231455002210.1.2.3 conn=delta kv=13.8
~ wdg=2 bus=90231455289093.1.2.3.0 conn=wye kv=0.38

new transformer.UNTRMT_5307237 phases=3 windings=2 %r=1.39 xhl=3.21 kva=75.0
~ wdg=1 bus=83509545002210.1.2.3 conn=delta kv=13.8
~ wdg=2 bus=83509545307237.1.2.3.0 conn=wye kv=0.38

new transformer.UNTRMT_5317679 phases=3 windings=2 %r=1.55 xhl=3.14 kva=75.0
~ wdg=1 bus=80452455002210.1.2.3 conn=delta kv=13.8
~ wdg=2 bus=80452455317679.1.2.3.0 conn=wye kv=0.38

new transformer.UNTRMT_5317699 phases=3 windings=2 %r=1.3 xhl=4.31 kva=225.0
~ wdg=1 bus=84121345002210.1.2.3 conn=delta kv=13.8
~ wdg=2 bus=84121345317699.1.2.3.0 conn=wye kv=0.38

new transformer.UNTRMT_5324496 phases=3 windings=2 %r=1.15 xhl=5.89 kva=112.0
~ wdg=1 bus=80535625002210.1.2.3 conn=delta kv=13.8
~ wdg=2 bus=80535625324496.1.2.3.0 conn=wye kv=0.38

new transformer.UNTRMT_5470672 phases=3 windings=2 %r=1.46 xhl=3.18 kva=112.0
~ wdg=1 bus=80533405002210.1.2.3 conn=delta kv=13.8
~ wdg=2 bus=80533405470672.1.2.3.0 conn=wye kv=0.38

new transformer.UNTRMT_5472679 phases=3 windings=2 %r=1.55 xhl=3.14 kva=75.0
~ wdg=1 bus=80536255002210.1.2.3 conn=delta kv=13.8
~ wdg=2 bus=80536255472679.1.2.3.0 conn=wye kv=0.38

new transformer.UNTRMT_5493547 phases=3 windings=2 %r=0.95 xhl=5.92 kva=1500.0
~ wdg=1 bus=88343555002210.1.2.3 conn=delta kv=13.8
~ wdg=2 bus=88343555493547.1.2.3.0 conn=wye kv=0.38

new transformer.UNTRMT_5506584 phases=3 windings=2 %r=1.15 xhl=5.89 kva=500.0
~ wdg=1 bus=88580995002210.1.2.3 conn=delta kv=13.8
~ wdg=2 bus=88580995506584.1.2.3.0 conn=wye kv=0.38

new transformer.UNTRMT_5514312 phases=3 windings=2 %r=1.02 xhl=5.91 kva=1000.0
~ wdg=1 bus=88993395002210.1.2.3 conn=delta kv=13.8
~ wdg=2 bus=88993395514312.1.2.3.0 conn=wye kv=0.38

new transformer.UNTRMT_5516555 phases=3 windings=2 %r=1.46 xhl=3.18 kva=112.0
~ wdg=1 bus=89074095002210.1.2.3 conn=delta kv=13.8
~ wdg=2 bus=89074095516555.1.2.3.0 conn=wye kv=0.38

new transformer.UNTRMT_5527874 phases=3 windings=2 %r=1.25 xhl=4.32 kva=300.0
~ wdg=1 bus=89425945002210.1.2.3 conn=delta kv=13.8
~ wdg=2 bus=89425945527874.1.2.3.0 conn=wye kv=0.38

new transformer.UNTRMT_5530576 phases=3 windings=2 %r=1.15 xhl=5.89 kva=75.0
~ wdg=1 bus=89517305002210.1.2.3 conn=delta kv=13.8
~ wdg=2 bus=89517305530576-577.1.2.3.0 conn=wye kv=0.38

new transformer.UNTRMT_5533142 phases=3 windings=2 %r=1.46 xhl=3.18 kva=112.0
~ wdg=1 bus=89591545002210.1.2.3 conn=delta kv=13.8
~ wdg=2 bus=89591545533142.1.2.3.0 conn=wye kv=0.38

new transformer.UNTRMT_5534449 phases=3 windings=2 %r=1.46 xhl=3.18 kva=112.0
~ wdg=1 bus=89644615002210.1.2.3 conn=delta kv=13.8
~ wdg=2 bus=89644615534449.1.2.3.0 conn=wye kv=0.38

new transformer.UNTRMT_5536138 phases=3 windings=2 %r=1.46 xhl=3.18 kva=112.0
~ wdg=1 bus=89728315002210.1.2.3 conn=delta kv=13.8
~ wdg=2 bus=89728315536138.1.2.3.0 conn=wye kv=0.38

new transformer.UNTRMT_5538026 phases=3 windings=2 %r=1.46 xhl=3.18 kva=112.0
~ wdg=1 bus=89820065002210.1.2.3 conn=delta kv=13.8
~ wdg=2 bus=89820065538026.1.2.3.0 conn=wye kv=0.38

new transformer.UNTRMT_5565011 phases=3 windings=2 %r=1.46 xhl=3.18 kva=112.0
~ wdg=1 bus=80533825002210.1.2.3 conn=delta kv=13.8
~ wdg=2 bus=80533825565011.1.2.3.0 conn=wye kv=0.38

new transformer.UNTRMT_5574627 phases=3 windings=2 %r=1.39 xhl=3.21 kva=150.0
~ wdg=1 bus=80529775002210.1.2.3 conn=delta kv=13.8
~ wdg=2 bus=80529775574627.1.2.3.0 conn=wye kv=0.38

new transformer.UNTRMT_5578574 phases=3 windings=2 %r=1.55 xhl=3.14 kva=75.0
~ wdg=1 bus=80533575002210.1.2.3 conn=delta kv=13.8
~ wdg=2 bus=80533575578574.1.2.3.0 conn=wye kv=0.38

new transformer.UNTRMT_5579269 phases=3 windings=2 %r=1.55 xhl=3.14 kva=75.0
~ wdg=1 bus=80534655002210.1.2.3 conn=delta kv=13.8
~ wdg=2 bus=80534655579269.1.2.3.0 conn=wye kv=0.38

new transformer.UNTRMT_5582561 phases=3 windings=2 %r=1.25 xhl=4.32 kva=300.0
~ wdg=1 bus=93762615002210.1.2.3 conn=delta kv=13.8
~ wdg=2 bus=93762615582561.1.2.3.0 conn=wye kv=0.38

new transformer.UNTRMT_5582562 phases=3 windings=2 %r=1.3 xhl=4.31 kva=225.0
~ wdg=1 bus=91049645002210.1.2.3 conn=delta kv=13.8
~ wdg=2 bus=91049645582562.1.2.3.0 conn=wye kv=0.38

new transformer.UNTRMT_5588391 phases=3 windings=2 %r=1.55 xhl=3.14 kva=75.0
~ wdg=1 bus=80529855002210.1.2.3 conn=delta kv=13.8
~ wdg=2 bus=80529855588391.1.2.3.0 conn=wye kv=0.38

new transformer.UNTRMT_5588392 phases=3 windings=2 %r=1.25 xhl=4.32 kva=75.0
~ wdg=1 bus=91247765002210.1.2.3 conn=delta kv=13.8
~ wdg=2 bus=91247765588392.1.2.3.0 conn=wye kv=0.38

new transformer.UNTRMT_5590373 phases=3 windings=2 %r=1.3 xhl=4.31 kva=225.0
~ wdg=1 bus=91382505002210.1.2.3 conn=delta kv=13.8
~ wdg=2 bus=91382505590373.1.2.3.0 conn=wye kv=0.38

new transformer.UNTRMT_5592666 phases=3 windings=2 %r=1.55 xhl=3.14 kva=75.0
~ wdg=1 bus=91503375002210.1.2.3 conn=delta kv=13.8
~ wdg=2 bus=91503375592666.1.2.3.0 conn=wye kv=0.38

new transformer.UNTRMT_5626165 phases=3 windings=2 %r=1.25 xhl=4.32 kva=300.0
~ wdg=1 bus=92424185002210.1.2.3 conn=delta kv=13.8
~ wdg=2 bus=92424185626165.1.2.3.0 conn=wye kv=0.38

new transformer.UNTRMT_5636480 phases=3 windings=2 %r=1.39 xhl=3.21 kva=150.0
~ wdg=1 bus=92730185002210.1.2.3 conn=delta kv=13.8
~ wdg=2 bus=92730185636480.1.2.3.0 conn=wye kv=0.38

new transformer.UNTRMT_5644102 phases=3 windings=2 %r=1.46 xhl=3.18 kva=112.0
~ wdg=1 bus=80449555002210.1.2.3 conn=delta kv=13.8
~ wdg=2 bus=80449555644102.1.2.3.0 conn=wye kv=0.38

new transformer.UNTRMT_5646568 phases=3 windings=2 %r=1.39 xhl=3.21 kva=150.0
~ wdg=1 bus=93138025002210.1.2.3 conn=delta kv=13.8
~ wdg=2 bus=93138025646568.1.2.3.0 conn=wye kv=0.38

new transformer.UNTRMT_5655546 phases=3 windings=2 %r=1.46 xhl=3.18 kva=112.0
~ wdg=1 bus=93409135002210.1.2.3 conn=delta kv=13.8
~ wdg=2 bus=93409135655546.1.2.3.0 conn=wye kv=0.38

new transformer.UNTRMT_5663741 phases=3 windings=2 %r=1.25 xhl=4.32 kva=300.0
~ wdg=1 bus=82281355002210.1.2.3 conn=delta kv=13.8
~ wdg=2 bus=82281355663741.1.2.3.0 conn=wye kv=0.38

new transformer.UNTRMT_5684741 phases=3 windings=2 %r=1.25 xhl=4.32 kva=300.0
~ wdg=1 bus=80457265002210.1.2.3 conn=delta kv=13.8
~ wdg=2 bus=80457265684741.1.2.3.0 conn=wye kv=0.38

new transformer.UNTRMT_5697150 phases=3 windings=2 %r=1.55 xhl=3.14 kva=75.0
~ wdg=1 bus=80534745002210.1.2.3 conn=delta kv=13.8
~ wdg=2 bus=80534745697150.1.2.3.0 conn=wye kv=0.38

new transformer.UNTRMT_5701033 phases=3 windings=2 %r=1.3 xhl=4.31 kva=225.0
~ wdg=1 bus=94539585002210.1.2.3 conn=delta kv=13.8
~ wdg=2 bus=94539585701033.1.2.3.0 conn=wye kv=0.38

new transformer.UNTRMT_5740231 phases=3 windings=2 %r=1.46 xhl=3.18 kva=112.0
~ wdg=1 bus=80534485002210.1.2.3 conn=delta kv=13.8
~ wdg=2 bus=80534485740231.1.2.3.0 conn=wye kv=0.38

new transformer.UNTRMT_5743625 phases=3 windings=2 %r=1.39 xhl=3.21 kva=150.0
~ wdg=1 bus=96228765002210.1.2.3 conn=delta kv=13.8
~ wdg=2 bus=96228765743625.1.2.3.0 conn=wye kv=0.38

new transformer.UNTRMT_5779875 phases=3 windings=2 %r=1.15 xhl=5.89 kva=500.0
~ wdg=1 bus=97737325002210.1.2.3 conn=delta kv=13.8
~ wdg=2 bus=97737325779875.1.2.3.0 conn=wye kv=0.38

new transformer.UNTRMT_5796840 phases=3 windings=2 %r=1.25 xhl=4.32 kva=300.0
~ wdg=1 bus=98563045002210.1.2.3 conn=delta kv=13.8
~ wdg=2 bus=98563045796840.1.2.3.0 conn=wye kv=0.38

new transformer.UNTRMT_5797491 phases=3 windings=2 %r=1.25 xhl=4.32 kva=300.0
~ wdg=1 bus=98563595002210.1.2.3 conn=delta kv=13.8
~ wdg=2 bus=98563595797491.1.2.3.0 conn=wye kv=0.38

! 6. Linhas de Baixa Tensao (BT)
new line.52876324 phases=3 bus1=80449535644102.1.2.3.0 bus2=80449525644102.1.2.3.0 r1=0.991 x1=0.1 length=0.018758 units=km normamps=100.0
new line.52876328 phases=3 bus1=80449575644102.1.2.3.0 bus2=80449565644102.1.2.3.0 r1=0.506 x1=0.1 length=0.037331 units=km normamps=157.0
new line.52876555 phases=3 bus1=80451035289093.1.2.3.0 bus2=80451045289093.1.2.3.0 r1=0.991 x1=0.1 length=0.042124 units=km normamps=100.0
new line.52876610 phases=3 bus1=80451045289093.1.2.3.0 bus2=80463845289093.1.2.3.0 r1=0.991 x1=0.1 length=0.039727 units=km normamps=100.0
new line.52876771 phases=3 bus1=80452475317679.1.2.3.0 bus2=80452485317679.1.2.3.0 r1=0.975 x1=0.47 length=0.030225 units=km normamps=152.0
new line.52887441 phases=3 bus1=80529935271978.1.2.3.0 bus2=80529945271978.1.2.3.0 r1=0.613 x1=0.45 length=0.02369 units=km normamps=203.0
new line.52887443 phases=3 bus1=80529965271978.1.2.3.0 bus2=80529955271978.1.2.3.0 r1=0.613 x1=0.45 length=0.029498 units=km normamps=203.0
new line.52887458 phases=3 bus1=80530245271979.1.2.3.0 bus2=80530225271979.1.2.3.0 r1=0.613 x1=0.45 length=0.007803 units=km normamps=203.0
new line.52887547 phases=3 bus1=80529785574627.1.2.3.0 bus2=80529745574627.1.2.3.0 r1=0.975 x1=0.47 length=0.007209 units=km normamps=152.0
new line.52887552 phases=3 bus1=80529835271977.1.2.3.0 bus2=80529825271977.1.2.3.0 r1=0.506 x1=0.1 length=0.030691 units=km normamps=157.0
new line.52887565 phases=3 bus1=80529805271978.1.2.3.0 bus2=80529795271978.1.2.3.0 r1=0.613 x1=0.45 length=0.025645 units=km normamps=203.0
new line.52887572 phases=3 bus1=80530475271980.1.2.3.0 bus2=80530455271980.1.2.3.0 r1=0.975 x1=0.47 length=0.009427 units=km normamps=152.0
new line.52887573 phases=3 bus1=80530435271980.1.2.3.0 bus2=80530475271980.1.2.3.0 r1=0.975 x1=0.47 length=0.021278 units=km normamps=152.0
new line.52887577 phases=3 bus1=80532915271980.1.2.3.0 bus2=80532925271980.1.2.3.0 r1=0.975 x1=0.47 length=0.032787 units=km normamps=152.0
new line.52887578 phases=3 bus1=80530355271980.1.2.3.0 bus2=80532925271980.1.2.3.0 r1=0.613 x1=0.45 length=0.015194 units=km normamps=203.0
new line.52887595 phases=3 bus1=80530345272007.1.2.3.0 bus2=89074085272007.1.2.3.0 r1=0.991 x1=0.1 length=0.011699 units=km normamps=100.0
new line.52887620 phases=3 bus1=80533725272014.1.2.3.0 bus2=80533335272014.1.2.3.0 r1=0.613 x1=0.45 length=0.04018 units=km normamps=203.0
new line.52887621 phases=3 bus1=80533745272014.1.2.3.0 bus2=80533725272014.1.2.3.0 r1=0.613 x1=0.45 length=0.033886 units=km normamps=203.0
new line.52887622 phases=3 bus1=80532415272016.1.2.3.0 bus2=80532425272016.1.2.3.0 r1=0.975 x1=0.47 length=0.062427 units=km normamps=152.0
new line.52887627 phases=3 bus1=80532465272016.1.2.3.0 bus2=91382505272016.1.2.3.0 r1=0.975 x1=0.47 length=0.017057 units=km normamps=152.0
new line.52887636 phases=3 bus1=80535225272016.1.2.3.0 bus2=80532445272016.1.2.3.0 r1=0.975 x1=0.47 length=0.03092 units=km normamps=152.0
new line.52887766 phases=3 bus1=80530145271999.1.2.3.0 bus2=80530125271999.1.2.3.0 r1=0.613 x1=0.45 length=0.017613 units=km normamps=203.0
new line.52887768 phases=3 bus1=80534035271999.1.2.3.0 bus2=80534015271999.1.2.3.0 r1=0.613 x1=0.45 length=0.01735 units=km normamps=203.0
new line.52887769 phases=3 bus1=80534045271999.1.2.3.0 bus2=80534035271999.1.2.3.0 r1=0.613 x1=0.45 length=0.018367 units=km normamps=203.0
new line.52887775 phases=3 bus1=80533575578574.1.2.3.0 bus2=80533565578574.1.2.3.0 r1=0.506 x1=0.1 length=0.026833 units=km normamps=157.0
new line.52887777 phases=3 bus1=80533595578574.1.2.3.0 bus2=80533585578574.1.2.3.0 r1=0.506 x1=0.1 length=0.036836 units=km normamps=157.0
new line.52887786 phases=3 bus1=80535355272017.1.2.3.0 bus2=80533455272017.1.2.3.0 r1=0.991 x1=0.1 length=0.030273 units=km normamps=100.0
new line.52887797 phases=3 bus1=80533475272017.1.2.3.0 bus2=80533715272017.1.2.3.0 r1=0.991 x1=0.1 length=0.020949 units=km normamps=100.0
new line.52887805 phases=3 bus1=80532765272001.1.2.3.0 bus2=80532755272001.1.2.3.0 r1=0.975 x1=0.47 length=0.032839 units=km normamps=152.0
new line.52887808 phases=3 bus1=80532805272001.1.2.3.0 bus2=87915505272001.1.2.3.0 r1=0.613 x1=0.45 length=0.020714 units=km normamps=203.0
new line.52887823 phases=3 bus1=80534745697150.1.2.3.0 bus2=88367515697150.1.2.3.0 r1=0.506 x1=0.1 length=0.009994 units=km normamps=157.0
new line.52887824 phases=3 bus1=80534755697150.1.2.3.0 bus2=80536055697150.1.2.3.0 r1=0.506 x1=0.1 length=0.031737 units=km normamps=157.0
new line.52887829 phases=3 bus1=80536075272002.1.2.3.0 bus2=80536265272002.1.2.3.0 r1=0.506 x1=0.1 length=0.014852 units=km normamps=157.0
new line.52887832 phases=3 bus1=80533985272003.1.2.3.0 bus2=80533995272003.1.2.3.0 r1=0.975 x1=0.47 length=0.033062 units=km normamps=152.0
new line.52887842 phases=3 bus1=80536125272003.1.2.3.0 bus2=90341115272003.1.2.3.0 r1=0.613 x1=0.45 length=0.008711 units=km normamps=203.0
new line.52887870 phases=3 bus1=80536215272005.1.2.3.0 bus2=80536205272005.1.2.3.0 r1=0.613 x1=0.45 length=0.042161 units=km normamps=203.0
new line.52887876 phases=3 bus1=80536495272005.1.2.3.0 bus2=80536465272005.1.2.3.0 r1=0.975 x1=0.47 length=0.050841 units=km normamps=152.0
new line.52887885 phases=3 bus1=80532275272006.1.2.3.0 bus2=80532285272006.1.2.3.0 r1=0.975 x1=0.47 length=0.03281 units=km normamps=152.0
new line.52887886 phases=3 bus1=80532285272006.1.2.3.0 bus2=80532295272006.1.2.3.0 r1=0.975 x1=0.47 length=0.030601 units=km normamps=152.0
new line.52887890 phases=3 bus1=80532325272006.1.2.3.0 bus2=80532315272006.1.2.3.0 r1=0.613 x1=0.45 length=0.02991 units=km normamps=203.0
new line.52887897 phases=3 bus1=80532385272006.1.2.3.0 bus2=80532395272006.1.2.3.0 r1=0.975 x1=0.47 length=0.031611 units=km normamps=152.0
new line.52887898 phases=3 bus1=80532395272006.1.2.3.0 bus2=80532405272006.1.2.3.0 r1=0.975 x1=0.47 length=0.023467 units=km normamps=152.0
new line.52887900 phases=1 bus1=80532375272006.2.0 bus2=80532555272006.2.0 r1=1.551 x1=0.49 length=0.033666 units=km normamps=114.0
new line.52887906 phases=3 bus1=80533755272009.1.2.3.0 bus2=80533745272009.1.2.3.0 r1=0.613 x1=0.45 length=0.042848 units=km normamps=203.0
new line.52887923 phases=3 bus1=80533815565011.1.2.3.0 bus2=80533825565011.1.2.3.0 r1=0.506 x1=0.1 length=0.035773 units=km normamps=157.0
new line.52887926 phases=3 bus1=80533845565011.1.2.3.0 bus2=80533855565011.1.2.3.0 r1=0.506 x1=0.1 length=0.026613 units=km normamps=157.0
new line.52887932 phases=3 bus1=80535275470672.1.2.3.0 bus2=80532495470672.1.2.3.0 r1=0.975 x1=0.47 length=0.026537 units=km normamps=152.0
new line.52887934 phases=3 bus1=80533365272016.1.2.3.0 bus2=80532905272016.1.2.3.0 r1=0.613 x1=0.45 length=0.02089 units=km normamps=203.0
new line.52887937 phases=3 bus1=80533395272016.1.2.3.0 bus2=80533375272016.1.2.3.0 r1=0.613 x1=0.45 length=0.026274 units=km normamps=203.0
new line.52887940 phases=3 bus1=80533435470672.1.2.3.0 bus2=80533415470672.1.2.3.0 r1=0.613 x1=0.45 length=0.029683 units=km normamps=203.0
new line.52887947 phases=3 bus1=80534115272022.1.2.3.0 bus2=80530625272022.1.2.3.0 r1=0.975 x1=0.47 length=0.011432 units=km normamps=152.0
new line.52887948 phases=3 bus1=80530625272022.1.2.3.0 bus2=80534125272022.1.2.3.0 r1=0.975 x1=0.47 length=0.023318 units=km normamps=152.0
...